data_molecular_structure_4

_audit_creation_method    'Converted from CSV data'
_audit_creation_date      2025-09-26

_chemical_name_common     'Nemonoxacin Malic Acid'
_chemical_formula_sum     'C26 H40 N3 O8'

_cell_length_a    30.000
_cell_length_b    30.000
_cell_length_c    30.000
_cell_angle_alpha 90.00
_cell_angle_beta  90.00
_cell_angle_gamma 90.00

_symmetry_space_group_name_H-M   'P 1'
_symmetry_Int_Tables_number      1

loop_
_symmetry_equiv_pos_as_xyz
'x,y,z'

loop_
_atom_site_label
_atom_site_type_symbol
_atom_site_fract_x
_atom_site_fract_y
_atom_site_fract_z
_atom_site_occupancy
C1    C    0.48770   0.44121   0.45703   1.000
O1    O    0.50624   0.44489   0.49987   1.000
C2    C    0.51849   0.49939   0.49972   1.000
C3    C    0.48347   0.53216   0.49588   1.000
N1    N    0.43840   0.52007   0.50047   1.000
C4    C    0.40039   0.54943   0.48259   1.000
C5    C    0.35564   0.52954   0.48905   1.000
C6    C    0.31588   0.54181   0.45190   1.000
C7    C    0.35750   0.47879   0.49836   1.000
C8    C    0.38878   0.46666   0.53740   1.000
N2    N    0.35841   0.46297   0.57849   1.000
C9    C    0.42727   0.49974   0.54403   1.000
C10   C    0.49678   0.57602   0.48815   1.000
C11   C    0.54136   0.58886   0.48778   1.000
C12   C    0.57413   0.55684   0.49330   1.000
C13   C    0.62797   0.57249   0.49489   1.000
O2    O    0.64629   0.61220   0.48752   1.000
C14   C    0.65678   0.52588   0.50467   1.000
C15   C    0.71361   0.54593   0.51101   1.000
O3    O    0.74626   0.52527   0.53401   1.000
O4    O    0.72182   0.58084   0.48653   1.000
C15   C    0.64296   0.47949   0.50858   1.000
N3    N    0.60095   0.46015   0.50283   1.000
C17   C    0.59516   0.40139   0.51111   1.000
C18   C    0.61948   0.36307   0.48455   1.000
C19   C    0.59417   0.39979   0.47340   1.000
C20   C    0.56413   0.51597   0.49693   1.000
O5    O    0.44211   0.51374   0.39263   1.000
C21   C    0.44615   0.52353   0.47831   1.000
O6    O    0.40755   0.56118   0.48625   1.000
C22   C    0.44696   0.49917   0.52188   1.000
C23   C    0.50976   0.46933   0.50722   1.000
O7    O    0.50953   0.42999   0.53761   1.000
C24   C    0.55408   0.49174   0.51089   1.000
O8    O    0.58816   0.47378   0.52762   1.000
O9    O    0.55408   0.53502   0.48425   1.000
H1    H    0.48770   0.40480   0.45649   1.000
H2    H    0.45298   0.45509   0.44472   1.000
H3    H    0.50741   0.45332   0.42861   1.000
H4    H    0.40089   0.55405   0.44020   1.000
H5    H    0.40087   0.57576   0.49524   1.000
H6    H    0.33715   0.53479   0.52629   1.000
H7    H    0.31615   0.57848   0.44895   1.000
H8    H    0.30388   0.52746   0.42461   1.000
H9    H    0.29122   0.52298   0.47562   1.000
H10   H    0.33155   0.46667   0.47001   1.000
H11   H    0.31859   0.46802   0.51011   1.000
H12   H    0.40748   0.43346   0.53694   1.000
H13   H    0.34521   0.49277   0.58421   1.000
H14   H    0.33053   0.43851   0.57220   1.000
H15   H    0.46682   0.51815   0.55923   1.000
H16   H    0.41801   0.52597   0.56707   1.000
H17   H    0.47161   0.59962   0.48234   1.000
H18   H    0.55616   0.62515   0.48148   1.000
H19   H    0.74984   0.58801   0.48829   1.000
H20   H    0.66778   0.45144   0.51698   1.000
H21   H    0.57715   0.40073   0.53558   1.000
H22   H    0.65240   0.35434   0.48115   1.000
H23   H    0.61327   0.32858   0.51282   1.000
H24   H    0.56166   0.37376   0.47873   1.000
H25   H    0.59924   0.41246   0.43948   1.000
H26   H    0.40575   0.57107   0.44063   1.000
H27   H    0.46938   0.52354   0.55337   1.000
H28   H    0.42564   0.47875   0.53176   1.000
H29   H    0.50748   0.45556   0.47358   1.000
H30   H    0.53906   0.41950   0.53761   1.000
H31   H    0.58816   0.53447   0.48778   1.000

loop_
_geom_bond_atom_site_label_1
_geom_bond_atom_site_label_2
_geom_bond_distance
_geom_bond_site_symmetry_2
C1    O1    1.430   .
C1    H1    1.090   .
C1    H2    1.090   .
C1    H3    1.090   .
O1    C2    1.350   .
C2    C3    1.390   .
C2    C20   1.390   .
C3    N1    1.340   .
C3    C10   1.390   .
N1    C4    1.450   .
N1    C9    1.450   .
C4    C5    1.530   .
C4    H4    1.090   .
C4    H5    1.090   .
C5    C6    1.530   .
C5    C7    1.530   .
C5    H6    1.090   .
C6    H7    1.090   .
C6    H8    1.090   .
C6    H9    1.090   .
C7    C8    1.530   .
C7    H10   1.090   .
C7    H11   1.090   .
C8    N2    1.450   .
C8    C9    1.530   .
C8    H12   1.090   .
N2    H13   1.010   .
N2    H14   1.010   .
C9    H15   1.090   .
C9    H16   1.090   .
C10   C11   1.390   .
C10   H17   1.080   .
C11   C12   1.390   .
C11   H18   1.080   .
C12   C13   1.530   .
C12   C20   1.390   .
C13   O2    1.230   .
C13   C14   1.530   .
C14   C15   1.530   .
C14   C15   1.530   .
C15   O3    1.230   .
C15   O4    1.330   .
O4    H19   0.980   .
C15   N3    1.340   .
N3    C17   1.450   .
N3    C20   1.340   .
C17   C18   1.530   .
C17   C19   1.530   .
C17   H21   1.090   .
C18   C19   1.530   .
C18   H22   1.090   .
C18   H23   1.090   .
C19   H24   1.090   .
C19   H25   1.090   .
C20   C24   1.530   .
O5    C21   1.230   .
C21   O6    1.330   .
C21   C22   1.530   .
O6    H26   0.980   .
C22   C23   1.530   .
C22   H27   1.090   .
C22   H28   1.090   .
C23   O7    1.430   .
C23   C24   1.530   .
C23   H29   1.090   .
O7    H30   0.980   .
C24   O8    1.230   .
C24   O9    1.330   .
O9    H31   0.980   .
