data_molecular_structure

_audit_creation_method    'Converted from CSV data'
_audit_creation_date      2025-09-26

_chemical_name_common     'Cefotaxime sodium'
_chemical_formula_sum     'C12 H18 N4 O7 S2 Na'

_cell_length_a    25.000
_cell_length_b    25.000
_cell_length_c    25.000
_cell_angle_alpha 90.00
_cell_angle_beta  90.00
_cell_angle_gamma 90.00

_symmetry_space_group_name_H-M   'P 1'
_symmetry_Int_Tables_number      1

loop_
_symmetry_equiv_pos_as_xyz
'x,y,z'

loop_
_atom_site_label
_atom_site_type_symbol
_atom_site_fract_x
_atom_site_fract_y
_atom_site_fract_z
_atom_site_occupancy
C1    C    0.73662   0.44109   0.54805   1.000
O1    O    0.69120   0.47536   0.54923   1.000
N1    N    0.69270   0.50085   0.50408   1.000
C2    C    0.65145   0.54045   0.50187   1.000
C3    C    0.60678   0.53899   0.54356   1.000
O2    O    0.59707   0.57835   0.57063   1.000
N2    N    0.57902   0.49159   0.54545   1.000
C4    C    0.53194   0.48384   0.58099   1.000
C5    C    0.50066   0.42673   0.57897   1.000
O3    O    0.52211   0.38254   0.59070   1.000
N3    N    0.46309   0.44731   0.55455   1.000
C6    C    0.41637   0.42889   0.53340   1.000
C7    C    0.38984   0.36898   0.54429   1.000
O4    O    0.38402   0.36040   0.58945   1.000
O5    O    0.38002   0.34041   0.50152   1.000
C8    C    0.38559   0.46191   0.50316   1.000
C9    C    0.33244   0.44465   0.47772   1.000
O6    O    0.29283   0.48264   0.50032   1.000
C10   C    0.24525   0.47922   0.47110   1.000
C11   C    0.20676   0.52178   0.50045   1.000
O7    O    0.22473   0.45024   0.43335   1.000
C12   C    0.40117   0.50011   0.48854   1.000
S1    S    0.47201   0.50339   0.49952   1.000
C13   C    0.47619   0.50029   0.56071   1.000
C14   C    0.64815   0.55778   0.45568   1.000
C15   C    0.60691   0.59140   0.44456   1.000
S2    S    0.61172   0.61496   0.38909   1.000
C16   C    0.67558   0.59565   0.38911   1.000
N4    N    0.70063   0.60446   0.34162   1.000
N5    N    0.69872   0.57931   0.42830   1.000
Na1   Na    0.50000   0.50000   0.50000   1.000
H1    H    0.77343   0.46465   0.54981   1.000
H2    H    0.73612   0.41635   0.51180   1.000
H3    H    0.73351   0.41480   0.58311   1.000
H4    H    0.59242   0.45958   0.52273   1.000
H5    H    0.54097   0.49652   0.61221   1.000
H6    H    0.31904   0.40510   0.49313   1.000
H7    H    0.32646   0.44445   0.43796   1.000
H8    H    0.20607   0.54587   0.48980   1.000
H9    H    0.21413   0.50912   0.52389   1.000
H10   H    0.16747   0.51363   0.49231   1.000
H11   H    0.39785   0.52470   0.51192   1.000
H12   H    0.40029   0.50256   0.45113   1.000
H13   H    0.45223   0.50251   0.59173   1.000
H14   H    0.55917   0.60123   0.47307   1.000
H15   H    0.73629   0.58547   0.34622   1.000
H16   H    0.68743   0.61864   0.31223   1.000
